*Heading
** Job name: swaging_t2 Model name: Model-1
** Generated by: Abaqus/CAE 2018
*Preprint, echo=NO, model=NO, history=NO, contact=NO
**
** PARTS
**
*Part, name=housing
*Node
      1,   13.8900003,   25.2956905
      2,   17.3649998,   25.2956905
      3,   17.3649998,   28.7706909
      4,        15.29,   28.7706909
      5,   13.8900003,   27.3706913
      6,   13.8900003,   19.0706902
      7,        15.29,   17.6706905
      8,   28.8899994,   17.6706905
      9,   28.8899994,   28.7706909
     10,   14.2375002,   25.2956905
     11,       14.585,   25.2956905
     12,   14.9324999,   25.2956905
     13,   15.2799997,   25.2956905
     14,   15.6274996,   25.2956905
     15,   15.9750004,   25.2956905
     16,   16.3225002,   25.2956905
     17,   16.6700001,   25.2956905
     18,   17.0174999,   25.2956905
     19,   17.3649998,   25.6431904
     20,   17.3649998,   25.9906902
** ... 1781 like lines cut
*Element, type=CAX3
1, 341, 338, 328
2, 317, 310, 301
3, 382, 268, 270
229, 1737, 1158, 1088
230, 1376,  441, 1369
231, 1616, 1102, 1034
232, 1643,  944,  990
233,  903, 1606,  862
234,  978,  932,  606
235,  906, 1601,  955
236, 1018,  987,  942
237, 1134, 1049, 1080
238, 1735, 1740, 1015
239, 1328, 1161,  596
240, 1125, 1071, 1783
241, 1540, 1167,  410
242, 1163,  401, 1077
243, 1177, 1131,  518
244, 1199,  394, 1194
245, 1204,  517, 1195
** ... 29 like lines cut
*Element, type=CAX4R
  4, 292, 362, 298, 296
  5, 221, 218, 197, 190
  6, 295, 320, 321, 310
  7, 248, 262, 261, 246
  8,  52,  53, 190, 197
  9, 201, 361, 250, 225
 10, 229, 244, 249, 226
 11, 343, 340, 336, 329
 12, 344, 359, 343, 339
 13, 352, 351, 349, 357
 14,  20, 351, 352,  19
 15,  18,   2,  19, 352
 16, 297, 308, 290, 283
 17, 278, 266, 246, 261
 18, 244, 229, 228, 247
 19, 220, 237, 238, 216
 20, 203, 199,  42,  43
 21,  35, 193, 194,  34
 22, 186, 185, 209, 214
 23, 214, 210, 187, 186
** ... 1674 like lines cut
*Nset, nset=_PickedSet3, internal, generate
    1,  1801,     1
*Elset, elset=_PickedSet3, internal, generate
    1,  1743,     1
** Section: housing_section
*Solid Section, elset=_PickedSet3, material=housing_mat
,
*End Part
**  
*Part, name=inner_ball
*Node
      1,   7.14499998,           0.
      2,   8.50899982,           0.
      3,    9.3434124,   1.13400352
      4,    10.173872,   2.68487334
      5,   10.6551819,    4.0079565
      6,   11.0153103,   5.72992325
      7,   11.1045628,   7.13500023
      8,   11.0153103,   8.54007721
      9,   10.6551819,    10.262044
     10,    10.173872,   11.5851269
     11,    9.3434124,   13.1359968
     12,   8.50899982,   14.2700005
     13,   7.14499998,   14.2700005
     14,   7.48600006,           0.
     15,   7.82700014,           0.
     16,   8.16800022,           0.
     17,   8.73098946,  0.273431033
     18,   8.94419575,  0.553764403
     19,   9.14840508,  0.840718091
     20,   9.52901936,   1.43332553
** ... 461 like lines cut
*Element, type=CAX3
1, 481, 463, 466
2, 465, 460, 452
3, 363, 474, 367
*Element, type=CAX4R
  4,  54, 177, 125,  55
  5, 168, 255,  94,  17
  6, 154,  25,  26, 166
  7, 273, 204, 196, 265
  8,  33, 146, 158,  32
  9, 146, 188, 193, 158
 10, 144, 192, 188, 146
 11,  43, 136, 172,  42
 12, 136, 183, 212, 172
 13, 296, 199, 334, 331
 14, 216, 153, 158, 193
 15, 210, 174, 145, 202
 16,  55, 125, 219,  56
 17,   2,  17,  94,  16
 18,  19, 145, 174,  18
 19,  16,  94,  95,  15
 20,  21, 149, 151,  20
 21, 294, 472, 370, 297
 22, 164, 182, 202, 145
 23,   4, 134, 163,  23
** ... 412 like lines cut
*Nset, nset=_PickedSet2, internal, generate
   1,  481,    1
*Elset, elset=_PickedSet2, internal, generate
   1,  435,    1
** Section: bear_section
*Solid Section, elset=_PickedSet2, material=bear_mat
,
*End Part
**  
*Part, name=outer_race
*Node
      1,   13.8900003,   9.90999985
      2,   10.7522411,   9.90999985
      3,   9.61814976,   1.58500004
      4,   11.5117092,   1.58500004
      5,   12.3199997,    2.9849999
      6,   13.1282902,   1.58500004
      7,   13.8900003,   1.58500004
      8,   13.8900003,   7.13500023
      9,   13.8900003,   12.6850004
     10,   13.1282902,   12.6850004
     11,   12.3199997,   11.2849998
     12,   11.5117092,   12.6850004
     13,   9.61814976,   12.6850004
     14,   13.7887821,   9.90999985
     15,   13.6875639,   9.90999985
     16,   13.5863457,   9.90999985
     17,   13.4851274,   9.90999985
     18,   13.3839102,   9.90999985
     19,    13.282692,   9.90999985
     20,   13.1814737,   9.90999985
** ... 1367 like lines cut
*Element, type=CAX3
 1, 443, 252, 444
 2, 460, 258, 238
 3, 246, 259, 236
 4, 310, 305, 306
 5, 427, 407, 426
 6, 423, 406, 402
 7, 472, 467, 424
 8, 444,  14,  15
 9, 450, 461, 239
315,  877,  571,  907
316, 1065, 1096, 1043
317, 1252, 1231,  547
318, 1184, 1140,  631
319,  963,  533,  938
320, 1006,  633, 1072
321, 1345,  575, 1048
322, 1118, 1108,  517
323, 1137, 1073, 1075
324, 1371, 1232, 1201
325, 1193,  573, 1019
** ... 5 like lines cut
*Element, type=CAX4R
 10, 466, 469, 278, 270
 11, 232, 227,  20,  21
 12, 298, 288, 292, 299
 13, 363, 311, 310, 315
 14, 347, 384, 389, 351
 15, 328, 331,  81,  82
 16,  60,  61, 346, 348
 17, 391, 354, 355, 378
 18,  72,  73, 357, 360
 19, 327, 368, 359, 330
 20, 329,  80,  81, 331
 21,  43,   2,  44, 244
 22, 439, 244, 445, 234
 23, 439, 210,  41,  42
 24,  40,  41, 210, 440
 25, 441, 440, 211, 237
 26,  38,  39, 441, 212
 27, 212, 230,  37,  38
 28,  35,  36, 213, 214
 29,  34,  35, 214, 215
** ... 1264 like lines cut
*Nset, nset=_PickedSet2, internal, generate
    1,  1387,     1
*Elset, elset=_PickedSet2, internal, generate
    1,  1309,     1
** Region: (bear_section:Picked), (Controls:Default)
*Elset, elset=_I1, internal
   1,   2,   3,   4,   5,   6,   7,   8,   9, 315, 316, 317, 318, 319, 320, 321
 322, 323, 324, 325, 326, 327, 328, 329, 330
** Section: bear_section
*Solid Section, elset=_I1, material=bear_mat
,
** Region: (bear_section:Picked), (Controls:EC-1)
*Elset, elset=_I2, internal
   10,   11,   12,   13,   14,   15,   16,   17,   18,   19,   20,   21,   22,   23,   24,   25
   26,   27,   28,   29,   30,   31,   32,   33,   34,   35,   36,   37,   38,   39,   40,   41
   42,   43,   44,   45,   46,   47,   48,   49,   50,   51,   52,   53,   54,   55,   56,   57
   58,   59,   60,   61,   62,   63,   64,   65,   66,   67,   68,   69,   70,   71,   72,   73
   74,   75,   76,   77,   78,   79,   80,   81,   82,   83,   84,   85,   86,   87,   88,   89
   90,   91,   92,   93,   94,   95,   96,   97,   98,   99,  100,  101,  102,  103,  104,  105
  106,  107,  108,  109,  110,  111,  112,  113,  114,  115,  116,  117,  118,  119,  120,  121
  122,  123,  124,  125,  126,  127,  128,  129,  130,  131,  132,  133,  134,  135,  136,  137
  138,  139,  140,  141,  142,  143,  144,  145,  146,  147,  148,  149,  150,  151,  152,  153
  154,  155,  156,  157,  158,  159,  160,  161,  162,  163,  164,  165,  166,  167,  168,  169
  170,  171,  172,  173,  174,  175,  176,  177,  178,  179,  180,  181,  182,  183,  184,  185
  186,  187,  188,  189,  190,  191,  192,  193,  194,  195,  196,  197,  198,  199,  200,  201
  202,  203,  204,  205,  206,  207,  208,  209,  210,  211,  212,  213,  214,  215,  216,  217
  218,  219,  220,  221,  222,  223,  224,  225,  226,  227,  228,  229,  230,  231,  232,  233
  234,  235,  236,  237,  238,  239,  240,  241,  242,  243,  244,  245,  246,  247,  248,  249
  250,  251,  252,  253,  254,  255,  256,  257,  258,  259,  260,  261,  262,  263,  264,  265
  266,  267,  268,  269,  270,  271,  272,  273,  274,  275,  276,  277,  278,  279,  280,  281
  282,  283,  284,  285,  286,  287,  288,  289,  290,  291,  292,  293,  294,  295,  296,  297
  298,  299,  300,  301,  302,  303,  304,  305,  306,  307,  308,  309,  310,  311,  312,  313
  314,  331,  332,  333,  334,  335,  336,  337,  338,  339,  340,  341,  342,  343,  344,  345
** ... 61 like lines cut
** Section: bear_section
*Solid Section, elset=_I2, controls=EC-1, material=bear_mat
,
*End Part
**  
*Part, name=roller
*Node
      1,   12.3199997,   37.4007835
      2,   10.5956278,   41.0987129
      3,   9.18500042,   41.0987129
      4,   9.18500042,   45.3687134
      5,   15.1850004,   45.3687134
      6,   15.1850004,   39.0548935
      7,   12.2185659,    37.618309
      8,   12.1171322,   37.8358345
      9,   12.0156994,     38.05336
     10,   11.9142656,   38.2708855
     11,   11.8128319,   38.4884109
     12,   11.7113981,   38.7059364
     13,   11.6099644,   38.9234619
     14,   11.5085306,   39.1409874
     15,   11.4070969,   39.3585129
     16,   11.3056631,   39.5760384
     17,   11.2042294,   39.7935638
     18,   11.1027956,   40.0110855
     19,   11.0013618,    40.228611
     20,    10.899929,   40.4461365
** ... 88 like lines cut
*Element, type=RAX2
 1,  1,  7
 2,  7,  8
 3,  8,  9
 4,  9, 10
 5, 10, 11
 6, 11, 12
 7, 12, 13
 8, 13, 14
 9, 14, 15
10, 15, 16
11, 16, 17
12, 17, 18
13, 18, 19
14, 19, 20
15, 20, 21
16, 21, 22
17, 22,  2
18,  3, 23
19, 23, 24
20, 24, 25
** ... 88 like lines cut
*Node
    109,   12.1850004,   45.3687134,           0.
*Nset, nset=roller-RefPt_, internal
109, 
*Elset, elset=roller, generate
   1,  108,    1
*End Part
**  
**
** ASSEMBLY
**
*Assembly, name=Assembly
**  
*Instance, name=housing-1, part=housing
          0.,   -16.085691,           0.
*End Instance
**  
*Instance, name=inner_ball-1, part=inner_ball
*End Instance
**  
*Instance, name=outer_race-1, part=outer_race
*End Instance
**  
*Instance, name=roller-1, part=roller
          0.,   -24.115785,           0.
*End Instance
**  
*Nset, nset=_PickedSet19, internal, instance=outer_race-1
  3,  4,  6,  7, 67, 68, 69, 70, 77
*Elset, elset=_PickedSet19, internal, instance=outer_race-1
  47,  48,  65,  71,  72, 214, 226
*Nset, nset=_PickedSet20, internal, instance=inner_ball-1
  1, 13, 54, 55, 56, 57, 58, 59, 60, 61, 62, 63, 64, 65, 66, 67
 68, 69, 70, 71, 72, 73, 74, 75, 76, 77, 78, 79, 80, 81, 82, 83
 84, 85, 86, 87, 88, 89, 90, 91, 92, 93
*Elset, elset=_PickedSet20, internal, instance=inner_ball-1
   4,  16,  51,  52,  53,  56,  57,  58,  59,  60,  61,  63,  64,  65,  66,  67
  68,  69,  70,  71,  72,  73,  74,  75,  76,  77,  78,  79,  80,  81,  82,  83
  84,  85,  86,  88,  89,  94, 102, 119, 126
*Nset, nset=_PickedSet31, internal, instance=housing-1
   7,   8,  82,  83,  84,  85,  86,  87,  88,  89,  90,  91,  92,  93,  94,  95
  96,  97,  98,  99, 100, 101, 102, 103, 104, 105, 106, 107, 108, 109, 110, 111
 112, 113, 114, 115, 116, 117, 118, 119
*Elset, elset=_PickedSet31, internal, instance=housing-1
 285, 286, 288, 348, 356, 364, 378, 391, 392, 393, 409, 424, 440, 455, 471, 486
 487, 502, 503, 517, 535, 803, 804, 805, 806, 807, 808, 809, 810, 811, 812, 813
 814, 815, 816, 817, 818, 898, 903
*Nset, nset=_PickedSet32, internal, instance=housing-1
   8,   9, 120, 121, 122, 123, 124, 125, 126, 127, 128, 129, 130, 131, 132, 133
 134, 135, 136, 137, 138, 139, 140, 141, 142, 143, 144, 145, 146, 147, 148, 149
 150,
*Elset, elset=_PickedSet32, internal, instance=housing-1
 514, 518, 520, 525, 526, 528, 529, 530, 534, 535, 770, 782, 819, 820, 822, 823
 825, 827, 828, 829, 863, 864, 865, 867, 868, 869, 871, 872, 874, 875, 876, 878
*Nset, nset=_PickedSet33, internal, instance=roller-1
 109,
*Elset, elset=__PickedSurf21_S2, internal, instance=inner_ball-1
   6,  48,  90, 104, 105, 111, 113, 129, 130, 131, 132, 133, 134, 135, 136, 137
 138, 144, 145, 147, 148, 149, 150, 154, 155, 161
*Elset, elset=__PickedSurf21_S4, internal, instance=inner_ball-1
   8,  11,  18,  20,  23,  28,  34,  93,  95,  96,  98, 108, 109, 115, 139, 142
 158,
*Elset, elset=__PickedSurf21_S1, internal, instance=inner_ball-1
 17,
*Surface, type=ELEMENT, name=_PickedSurf21, internal
__PickedSurf21_S2, S2
__PickedSurf21_S4, S4
__PickedSurf21_S1, S1
*Elset, elset=__PickedSurf22_S1, internal, instance=outer_race-1
  16,  47,  52,  64, 174, 185, 187, 211, 212, 215
*Elset, elset=__PickedSurf22_S2, internal, instance=outer_race-1
  21,  62, 122, 183, 387, 480, 519, 526, 528, 532, 535, 548, 550, 737, 774, 775
 780, 782, 783, 825, 827, 828
*Elset, elset=__PickedSurf22_S3, internal, instance=outer_race-1
  49,  51,  63,  67,  77, 108, 166, 181, 182, 207
*Elset, elset=__PickedSurf22_S4, internal, instance=outer_race-1
 331, 478, 481, 525, 533, 534, 551, 553, 739, 777, 779, 781
*Surface, type=ELEMENT, name=_PickedSurf22, internal
__PickedSurf22_S1, S1
__PickedSurf22_S2, S2
__PickedSurf22_S4, S4
__PickedSurf22_S3, S3
*Elset, elset=__PickedSurf24_S3, internal, instance=outer_race-1
  15,  86, 163, 179, 197, 456
*Elset, elset=__PickedSurf24_S2, internal, instance=outer_race-1
  20,  53,  54,  72,  75,  76,  78, 126, 142, 190, 200, 203, 346, 347, 349, 402
 413, 415, 425, 432, 438, 444, 449, 453, 791, 793, 795, 797, 799, 800, 802, 804
 805, 807, 809
*Elset, elset=__PickedSurf24_S4, internal, instance=outer_race-1
  69,  79, 177, 199, 372, 417, 748, 798
*Elset, elset=__PickedSurf24_S1, internal, instance=outer_race-1
 191, 194
*Surface, type=ELEMENT, name=_PickedSurf24, internal
__PickedSurf24_S3, S3
__PickedSurf24_S2, S2
__PickedSurf24_S4, S4
__PickedSurf24_S1, S1
*Elset, elset=__PickedSurf26_S2, internal, instance=outer_race-1
 418, 420, 457, 765, 786
*Elset, elset=__PickedSurf26_S4, internal, instance=outer_race-1
 456, 490, 723, 754, 755, 757, 766
*Elset, elset=__PickedSurf26_S1, internal, instance=outer_race-1
 355, 356, 371, 408, 409, 463, 464, 469, 470, 485, 488, 493, 513, 521, 529, 562
 563, 708, 713, 754, 758, 759, 766, 788, 812, 813, 815, 816, 821, 850, 851, 856
*Elset, elset=__PickedSurf26_S3, internal, instance=outer_race-1
 462, 491, 533, 690, 760, 761, 763, 764, 767, 768, 772, 773, 819, 842, 854
*Surface, type=ELEMENT, name=_PickedSurf26, internal
__PickedSurf26_S2, S2
__PickedSurf26_S4, S4
__PickedSurf26_S1, S1
__PickedSurf26_S3, S3
*Elset, elset=__PickedSurf28_S3, internal, instance=housing-1
 20, 25, 26, 34, 36, 39, 40, 42, 43, 45, 47, 48, 56, 94
*Elset, elset=__PickedSurf28_S1, internal, instance=housing-1
   8,  37,  44,  46,  66,  80, 225, 379, 792
*Elset, elset=__PickedSurf28_S4, internal, instance=housing-1
  41,  59, 383, 390, 793, 798, 799, 801, 803
*Elset, elset=__PickedSurf28_S2, internal, instance=housing-1
 340, 349, 357, 365, 372, 387, 389, 789, 846, 849, 853, 856, 858, 860, 861
*Surface, type=ELEMENT, name=_PickedSurf28, internal
__PickedSurf28_S3, S3
__PickedSurf28_S1, S1
__PickedSurf28_S4, S4
__PickedSurf28_S2, S2
*Elset, elset=__PickedSurf35_SPOS, internal, instance=roller-1, generate
  1,  17,   1
*Elset, elset=__PickedSurf35_SNEG, internal, instance=roller-1, generate
  68,  108,    1
*Surface, type=ELEMENT, name=_PickedSurf35, internal
__PickedSurf35_SPOS, SPOS
__PickedSurf35_SNEG, SNEG
*Rigid Body, ref node=roller-1.roller-RefPt_, elset=roller-1.roller
*End Assembly
** 
** ELEMENT CONTROLS
** 
*Section Controls, name=EC-1, hourglass=ENHANCED
1., 1., 1.
** 
** MATERIALS
** 
*Material, name=bear_mat
*Density
 7.8e-09,
*Elastic
21000., 0.27
*Plastic
840.,0.
*Material, name=housing_mat
*Density
 4.8e-09,
*Elastic
110000., 0.3
** 
** INTERACTION PROPERTIES
** 
*Surface Interaction, name=high
*Friction
 0.17,
*Surface Behavior, pressure-overclosure=HARD
*Surface Interaction, name=low
*Friction
 0.01,
*Surface Behavior, pressure-overclosure=HARD
** 
** BOUNDARY CONDITIONS
** 
** Name: BC-3 Type: Displacement/Rotation
*Boundary
_PickedSet19, 2, 2
** Name: BC-4 Type: Displacement/Rotation
*Boundary
_PickedSet20, 1, 1
** Name: BC-5 Type: Displacement/Rotation
*Boundary
_PickedSet31, 2, 2
** Name: BC-6 Type: Displacement/Rotation
*Boundary
_PickedSet32, 1, 1
** ----------------------------------------------------------------
** 
** STEP: Step-1
** 
*Step, name=Step-1, nlgeom=YES
*Dynamic, Explicit
, 0.1
*Bulk Viscosity
0.06, 1.2
** Mass Scaling: Semi-Automatic
**               Whole Model
*Fixed Mass Scaling, factor=4.
** 
** BOUNDARY CONDITIONS
** 
** Name: BC-1 Type: Velocity/Angular velocity
*Boundary, type=VELOCITY
_PickedSet33, 1, 1
_PickedSet33, 2, 2, -20.
_PickedSet33, 6, 6
** 
** INTERACTIONS
** 
** Interaction: Int-1
*Contact Pair, interaction=low, mechanical constraint=KINEMATIC, cpset=Int-1
_PickedSurf21, _PickedSurf22
** Interaction: Int-2
*Contact Pair, interaction=high, mechanical constraint=KINEMATIC, cpset=Int-2
_PickedSurf28, _PickedSurf24
** Interaction: Int-3
*Contact Pair, interaction=high, mechanical constraint=KINEMATIC, cpset=Int-3
_PickedSurf35, _PickedSurf26
** 
** OUTPUT REQUESTS
** 
*Restart, write, number interval=1, time marks=NO
** 
** FIELD OUTPUT: F-Output-1
** 
*Output, field, variable=PRESELECT, number interval=100
** 
** HISTORY OUTPUT: H-Output-1
** 
*Output, history, variable=PRESELECT
*End Step
